.MODEL QPWR NPN (IS=1.84P NF=1 BF=81.5 VAF=161 IKF=8.33 ISE=1.97N NE=2
+ BR=4 NR=1 VAR=20 IKR=12.5 RE=13.2M RB=53M RC=5.3M XTB=1.5
+ CJE=801P VJE=.6 MJE=.3 CJC=520P VJC=.22 MJC=.2 TF=54.1N TR=2.08U)